1536
silica
O  0.500  0.500  0.500
O  1.500  1.500  0.500
O  0.500  1.500  1.500
O  1.500  0.500  1.500
O  0.500  3.500  3.500
O  1.500  3.500  2.500
O  1.500  2.500  3.500
O  0.500  2.500  2.500
O  2.500  1.500  3.500
O  3.500  0.500  3.500
O  3.500  1.500  2.500
O  2.500  0.500  2.500
O  2.500  3.500  1.500
O  3.500  2.500  1.500
O  3.500  3.500  0.500
O  2.500  2.500  0.500
O  0.500  0.500  4.500
O  1.500  1.500  4.500
O  0.500  1.500  5.500
O  1.500  0.500  5.500
O  0.500  3.500  7.500
O  1.500  3.500  6.500
O  1.500  2.500  7.500
O  0.500  2.500  6.500
O  2.500  1.500  7.500
O  3.500  0.500  7.500
O  3.500  1.500  6.500
O  2.500  0.500  6.500
O  2.500  3.500  5.500
O  3.500  2.500  5.500
O  3.500  3.500  4.500
O  2.500  2.500  4.500
O  0.500  0.500  8.500
O  1.500  1.500  8.500
O  0.500  1.500  9.500
O  1.500  0.500  9.500
O  0.500  3.500  11.5000
O  1.500  3.500  10.5000
O  1.500  2.500  11.5000
O  0.500  2.500  10.5000
O  2.500  1.500  11.5000
O  3.500  0.500  11.5000
O  3.500  1.500  10.5000
O  2.500  0.500  10.5000
O  2.500  3.500  9.500
O  3.500  2.500  9.500
O  3.500  3.500  8.500
O  2.500  2.500  8.500
O  0.500  0.500  12.5000
O  1.500  1.500  12.5000
O  0.500  1.500  13.5000
O  1.500  0.500  13.5000
O  0.500  3.500  15.5000
O  1.500  3.500  14.5000
O  1.500  2.500  15.5000
O  0.500  2.500  14.5000
O  2.500  1.500  15.5000
O  3.500  0.500  15.5000
O  3.500  1.500  14.5000
O  2.500  0.500  14.5000
O  2.500  3.500  13.5000
O  3.500  2.500  13.5000
O  3.500  3.500  12.5000
O  2.500  2.500  12.5000
O  0.500  4.500  0.500
O  1.500  5.500  0.500
O  0.500  5.500  1.500
O  1.500  4.500  1.500
O  0.500  7.500  3.500
O  1.500  7.500  2.500
O  1.500  6.500  3.500
O  0.500  6.500  2.500
O  2.500  5.500  3.500
O  3.500  4.500  3.500
O  3.500  5.500  2.500
O  2.500  4.500  2.500
O  2.500  7.500  1.500
O  3.500  6.500  1.500
O  3.500  7.500  0.500
O  2.500  6.500  0.500
O  0.500  4.500  4.500
O  1.500  5.500  4.500
O  0.500  5.500  5.500
O  1.500  4.500  5.500
O  0.500  7.500  7.500
O  1.500  7.500  6.500
O  1.500  6.500  7.500
O  0.500  6.500  6.500
O  2.500  5.500  7.500
O  3.500  4.500  7.500
O  3.500  5.500  6.500
O  2.500  4.500  6.500
O  2.500  7.500  5.500
O  3.500  6.500  5.500
O  3.500  7.500  4.500
O  2.500  6.500  4.500
O  0.500  4.500  8.500
O  1.500  5.500  8.500
O  0.500  5.500  9.500
O  1.500  4.500  9.500
O  0.500  7.500  11.5000
O  1.500  7.500  10.5000
O  1.500  6.500  11.5000
O  0.500  6.500  10.5000
O  2.500  5.500  11.5000
O  3.500  4.500  11.5000
O  3.500  5.500  10.5000
O  2.500  4.500  10.5000
O  2.500  7.500  9.500
O  3.500  6.500  9.500
O  3.500  7.500  8.500
O  2.500  6.500  8.500
O  0.500  4.500  12.5000
O  1.500  5.500  12.5000
O  0.500  5.500  13.5000
O  1.500  4.500  13.5000
O  0.500  7.500  15.5000
O  1.500  7.500  14.5000
O  1.500  6.500  15.5000
O  0.500  6.500  14.5000
O  2.500  5.500  15.5000
O  3.500  4.500  15.5000
O  3.500  5.500  14.5000
O  2.500  4.500  14.5000
O  2.500  7.500  13.5000
O  3.500  6.500  13.5000
O  3.500  7.500  12.5000
O  2.500  6.500  12.5000
O  0.500  8.500  0.500
O  1.500  9.500  0.500
O  0.500  9.500  1.500
O  1.500  8.500  1.500
O  0.500  11.5000  3.500
O  1.500  11.5000  2.500
O  1.500  10.5000  3.500
O  0.500  10.5000  2.500
O  2.500  9.500  3.500
O  3.500  8.500  3.500
O  3.500  9.500  2.500
O  2.500  8.500  2.500
O  2.500  11.5000  1.500
O  3.500  10.5000  1.500
O  3.500  11.5000  0.500
O  2.500  10.5000  0.500
O  0.500  8.500  4.500
O  1.500  9.500  4.500
O  0.500  9.500  5.500
O  1.500  8.500  5.500
O  0.500  11.5000  7.500
O  1.500  11.5000  6.500
O  1.500  10.5000  7.500
O  0.500  10.5000  6.500
O  2.500  9.500  7.500
O  3.500  8.500  7.500
O  3.500  9.500  6.500
O  2.500  8.500  6.500
O  2.500  11.5000  5.500
O  3.500  10.5000  5.500
O  3.500  11.5000  4.500
O  2.500  10.5000  4.500
O  0.500  8.500  8.500
O  1.500  9.500  8.500
O  0.500  9.500  9.500
O  1.500  8.500  9.500
O  0.500  11.5000  11.5000
O  1.500  11.5000  10.5000
O  1.500  10.5000  11.5000
O  0.500  10.5000  10.5000
O  2.500  9.500  11.5000
O  3.500  8.500  11.5000
O  3.500  9.500  10.5000
O  2.500  8.500  10.5000
O  2.500  11.5000  9.500
O  3.500  10.5000  9.500
O  3.500  11.5000  8.500
O  2.500  10.5000  8.500
O  0.500  8.500  12.5000
O  1.500  9.500  12.5000
O  0.500  9.500  13.5000
O  1.500  8.500  13.5000
O  0.500  11.5000  15.5000
O  1.500  11.5000  14.5000
O  1.500  10.5000  15.5000
O  0.500  10.5000  14.5000
O  2.500  9.500  15.5000
O  3.500  8.500  15.5000
O  3.500  9.500  14.5000
O  2.500  8.500  14.5000
O  2.500  11.5000  13.5000
O  3.500  10.5000  13.5000
O  3.500  11.5000  12.5000
O  2.500  10.5000  12.5000
O  0.500  12.5000  0.500
O  1.500  13.5000  0.500
O  0.500  13.5000  1.500
O  1.500  12.5000  1.500
O  0.500  15.5000  3.500
O  1.500  15.5000  2.500
O  1.500  14.5000  3.500
O  0.500  14.5000  2.500
O  2.500  13.5000  3.500
O  3.500  12.5000  3.500
O  3.500  13.5000  2.500
O  2.500  12.5000  2.500
O  2.500  15.5000  1.500
O  3.500  14.5000  1.500
O  3.500  15.5000  0.500
O  2.500  14.5000  0.500
O  0.500  12.5000  4.500
O  1.500  13.5000  4.500
O  0.500  13.5000  5.500
O  1.500  12.5000  5.500
O  0.500  15.5000  7.500
O  1.500  15.5000  6.500
O  1.500  14.5000  7.500
O  0.500  14.5000  6.500
O  2.500  13.5000  7.500
O  3.500  12.5000  7.500
O  3.500  13.5000  6.500
O  2.500  12.5000  6.500
O  2.500  15.5000  5.500
O  3.500  14.5000  5.500
O  3.500  15.5000  4.500
O  2.500  14.5000  4.500
O  0.500  12.5000  8.500
O  1.500  13.5000  8.500
O  0.500  13.5000  9.500
O  1.500  12.5000  9.500
O  0.500  15.5000  11.5000
O  1.500  15.5000  10.5000
O  1.500  14.5000  11.5000
O  0.500  14.5000  10.5000
O  2.500  13.5000  11.5000
O  3.500  12.5000  11.5000
O  3.500  13.5000  10.5000
O  2.500  12.5000  10.5000
O  2.500  15.5000  9.500
O  3.500  14.5000  9.500
O  3.500  15.5000  8.500
O  2.500  14.5000  8.500
O  0.500  12.5000  12.5000
O  1.500  13.5000  12.5000
O  0.500  13.5000  13.5000
O  1.500  12.5000  13.5000
O  0.500  15.5000  15.5000
O  1.500  15.5000  14.5000
O  1.500  14.5000  15.5000
O  0.500  14.5000  14.5000
O  2.500  13.5000  15.5000
O  3.500  12.5000  15.5000
O  3.500  13.5000  14.5000
O  2.500  12.5000  14.5000
O  2.500  15.5000  13.5000
O  3.500  14.5000  13.5000
O  3.500  15.5000  12.5000
O  2.500  14.5000  12.5000
O  4.500  0.500  0.500
O  5.500  1.500  0.500
O  4.500  1.500  1.500
O  5.500  0.500  1.500
O  4.500  3.500  3.500
O  5.500  3.500  2.500
O  5.500  2.500  3.500
O  4.500  2.500  2.500
O  6.500  1.500  3.500
O  7.500  0.500  3.500
O  7.500  1.500  2.500
O  6.500  0.500  2.500
O  6.500  3.500  1.500
O  7.500  2.500  1.500
O  7.500  3.500  0.500
O  6.500  2.500  0.500
O  4.500  0.500  4.500
O  5.500  1.500  4.500
O  4.500  1.500  5.500
O  5.500  0.500  5.500
O  4.500  3.500  7.500
O  5.500  3.500  6.500
O  5.500  2.500  7.500
O  4.500  2.500  6.500
O  6.500  1.500  7.500
O  7.500  0.500  7.500
O  7.500  1.500  6.500
O  6.500  0.500  6.500
O  6.500  3.500  5.500
O  7.500  2.500  5.500
O  7.500  3.500  4.500
O  6.500  2.500  4.500
O  4.500  0.500  8.500
O  5.500  1.500  8.500
O  4.500  1.500  9.500
O  5.500  0.500  9.500
O  4.500  3.500  11.5000
O  5.500  3.500  10.5000
O  5.500  2.500  11.5000
O  4.500  2.500  10.5000
O  6.500  1.500  11.5000
O  7.500  0.500  11.5000
O  7.500  1.500  10.5000
O  6.500  0.500  10.5000
O  6.500  3.500  9.500
O  7.500  2.500  9.500
O  7.500  3.500  8.500
O  6.500  2.500  8.500
O  4.500  0.500  12.5000
O  5.500  1.500  12.5000
O  4.500  1.500  13.5000
O  5.500  0.500  13.5000
O  4.500  3.500  15.5000
O  5.500  3.500  14.5000
O  5.500  2.500  15.5000
O  4.500  2.500  14.5000
O  6.500  1.500  15.5000
O  7.500  0.500  15.5000
O  7.500  1.500  14.5000
O  6.500  0.500  14.5000
O  6.500  3.500  13.5000
O  7.500  2.500  13.5000
O  7.500  3.500  12.5000
O  6.500  2.500  12.5000
O  4.500  4.500  0.500
O  5.500  5.500  0.500
O  4.500  5.500  1.500
O  5.500  4.500  1.500
O  4.500  7.500  3.500
O  5.500  7.500  2.500
O  5.500  6.500  3.500
O  4.500  6.500  2.500
O  6.500  5.500  3.500
O  7.500  4.500  3.500
O  7.500  5.500  2.500
O  6.500  4.500  2.500
O  6.500  7.500  1.500
O  7.500  6.500  1.500
O  7.500  7.500  0.500
O  6.500  6.500  0.500
O  4.500  4.500  4.500
O  5.500  5.500  4.500
O  4.500  5.500  5.500
O  5.500  4.500  5.500
O  4.500  7.500  7.500
O  5.500  7.500  6.500
O  5.500  6.500  7.500
O  4.500  6.500  6.500
O  6.500  5.500  7.500
O  7.500  4.500  7.500
O  7.500  5.500  6.500
O  6.500  4.500  6.500
O  6.500  7.500  5.500
O  7.500  6.500  5.500
O  7.500  7.500  4.500
O  6.500  6.500  4.500
O  4.500  4.500  8.500
O  5.500  5.500  8.500
O  4.500  5.500  9.500
O  5.500  4.500  9.500
O  4.500  7.500  11.5000
O  5.500  7.500  10.5000
O  5.500  6.500  11.5000
O  4.500  6.500  10.5000
O  6.500  5.500  11.5000
O  7.500  4.500  11.5000
O  7.500  5.500  10.5000
O  6.500  4.500  10.5000
O  6.500  7.500  9.500
O  7.500  6.500  9.500
O  7.500  7.500  8.500
O  6.500  6.500  8.500
O  4.500  4.500  12.5000
O  5.500  5.500  12.5000
O  4.500  5.500  13.5000
O  5.500  4.500  13.5000
O  4.500  7.500  15.5000
O  5.500  7.500  14.5000
O  5.500  6.500  15.5000
O  4.500  6.500  14.5000
O  6.500  5.500  15.5000
O  7.500  4.500  15.5000
O  7.500  5.500  14.5000
O  6.500  4.500  14.5000
O  6.500  7.500  13.5000
O  7.500  6.500  13.5000
O  7.500  7.500  12.5000
O  6.500  6.500  12.5000
O  4.500  8.500  0.500
O  5.500  9.500  0.500
O  4.500  9.500  1.500
O  5.500  8.500  1.500
O  4.500  11.5000  3.500
O  5.500  11.5000  2.500
O  5.500  10.5000  3.500
O  4.500  10.5000  2.500
O  6.500  9.500  3.500
O  7.500  8.500  3.500
O  7.500  9.500  2.500
O  6.500  8.500  2.500
O  6.500  11.5000  1.500
O  7.500  10.5000  1.500
O  7.500  11.5000  0.500
O  6.500  10.5000  0.500
O  4.500  8.500  4.500
O  5.500  9.500  4.500
O  4.500  9.500  5.500
O  5.500  8.500  5.500
O  4.500  11.5000  7.500
O  5.500  11.5000  6.500
O  5.500  10.5000  7.500
O  4.500  10.5000  6.500
O  6.500  9.500  7.500
O  7.500  8.500  7.500
O  7.500  9.500  6.500
O  6.500  8.500  6.500
O  6.500  11.5000  5.500
O  7.500  10.5000  5.500
O  7.500  11.5000  4.500
O  6.500  10.5000  4.500
O  4.500  8.500  8.500
O  5.500  9.500  8.500
O  4.500  9.500  9.500
O  5.500  8.500  9.500
O  4.500  11.5000  11.5000
O  5.500  11.5000  10.5000
O  5.500  10.5000  11.5000
O  4.500  10.5000  10.5000
O  6.500  9.500  11.5000
O  7.500  8.500  11.5000
O  7.500  9.500  10.5000
O  6.500  8.500  10.5000
O  6.500  11.5000  9.500
O  7.500  10.5000  9.500
O  7.500  11.5000  8.500
O  6.500  10.5000  8.500
O  4.500  8.500  12.5000
O  5.500  9.500  12.5000
O  4.500  9.500  13.5000
O  5.500  8.500  13.5000
O  4.500  11.5000  15.5000
O  5.500  11.5000  14.5000
O  5.500  10.5000  15.5000
O  4.500  10.5000  14.5000
O  6.500  9.500  15.5000
O  7.500  8.500  15.5000
O  7.500  9.500  14.5000
O  6.500  8.500  14.5000
O  6.500  11.5000  13.5000
O  7.500  10.5000  13.5000
O  7.500  11.5000  12.5000
O  6.500  10.5000  12.5000
O  4.500  12.5000  0.500
O  5.500  13.5000  0.500
O  4.500  13.5000  1.500
O  5.500  12.5000  1.500
O  4.500  15.5000  3.500
O  5.500  15.5000  2.500
O  5.500  14.5000  3.500
O  4.500  14.5000  2.500
O  6.500  13.5000  3.500
O  7.500  12.5000  3.500
O  7.500  13.5000  2.500
O  6.500  12.5000  2.500
O  6.500  15.5000  1.500
O  7.500  14.5000  1.500
O  7.500  15.5000  0.500
O  6.500  14.5000  0.500
O  4.500  12.5000  4.500
O  5.500  13.5000  4.500
O  4.500  13.5000  5.500
O  5.500  12.5000  5.500
O  4.500  15.5000  7.500
O  5.500  15.5000  6.500
O  5.500  14.5000  7.500
O  4.500  14.5000  6.500
O  6.500  13.5000  7.500
O  7.500  12.5000  7.500
O  7.500  13.5000  6.500
O  6.500  12.5000  6.500
O  6.500  15.5000  5.500
O  7.500  14.5000  5.500
O  7.500  15.5000  4.500
O  6.500  14.5000  4.500
O  4.500  12.5000  8.500
O  5.500  13.5000  8.500
O  4.500  13.5000  9.500
O  5.500  12.5000  9.500
O  4.500  15.5000  11.5000
O  5.500  15.5000  10.5000
O  5.500  14.5000  11.5000
O  4.500  14.5000  10.5000
O  6.500  13.5000  11.5000
O  7.500  12.5000  11.5000
O  7.500  13.5000  10.5000
O  6.500  12.5000  10.5000
O  6.500  15.5000  9.500
O  7.500  14.5000  9.500
O  7.500  15.5000  8.500
O  6.500  14.5000  8.500
O  4.500  12.5000  12.5000
O  5.500  13.5000  12.5000
O  4.500  13.5000  13.5000
O  5.500  12.5000  13.5000
O  4.500  15.5000  15.5000
O  5.500  15.5000  14.5000
O  5.500  14.5000  15.5000
O  4.500  14.5000  14.5000
O  6.500  13.5000  15.5000
O  7.500  12.5000  15.5000
O  7.500  13.5000  14.5000
O  6.500  12.5000  14.5000
O  6.500  15.5000  13.5000
O  7.500  14.5000  13.5000
O  7.500  15.5000  12.5000
O  6.500  14.5000  12.5000
O  8.500  0.500  0.500
O  9.500  1.500  0.500
O  8.500  1.500  1.500
O  9.500  0.500  1.500
O  8.500  3.500  3.500
O  9.500  3.500  2.500
O  9.500  2.500  3.500
O  8.500  2.500  2.500
O  10.5000  1.500  3.500
O  11.5000  0.500  3.500
O  11.5000  1.500  2.500
O  10.5000  0.500  2.500
O  10.5000  3.500  1.500
O  11.5000  2.500  1.500
O  11.5000  3.500  0.500
O  10.5000  2.500  0.500
O  8.500  0.500  4.500
O  9.500  1.500  4.500
O  8.500  1.500  5.500
O  9.500  0.500  5.500
O  8.500  3.500  7.500
O  9.500  3.500  6.500
O  9.500  2.500  7.500
O  8.500  2.500  6.500
O  10.5000  1.500  7.500
O  11.5000  0.500  7.500
O  11.5000  1.500  6.500
O  10.5000  0.500  6.500
O  10.5000  3.500  5.500
O  11.5000  2.500  5.500
O  11.5000  3.500  4.500
O  10.5000  2.500  4.500
O  8.500  0.500  8.500
O  9.500  1.500  8.500
O  8.500  1.500  9.500
O  9.500  0.500  9.500
O  8.500  3.500  11.5000
O  9.500  3.500  10.5000
O  9.500  2.500  11.5000
O  8.500  2.500  10.5000
O  10.5000  1.500  11.5000
O  11.5000  0.500  11.5000
O  11.5000  1.500  10.5000
O  10.5000  0.500  10.5000
O  10.5000  3.500  9.500
O  11.5000  2.500  9.500
O  11.5000  3.500  8.500
O  10.5000  2.500  8.500
O  8.500  0.500  12.5000
O  9.500  1.500  12.5000
O  8.500  1.500  13.5000
O  9.500  0.500  13.5000
O  8.500  3.500  15.5000
O  9.500  3.500  14.5000
O  9.500  2.500  15.5000
O  8.500  2.500  14.5000
O  10.5000  1.500  15.5000
O  11.5000  0.500  15.5000
O  11.5000  1.500  14.5000
O  10.5000  0.500  14.5000
O  10.5000  3.500  13.5000
O  11.5000  2.500  13.5000
O  11.5000  3.500  12.5000
O  10.5000  2.500  12.5000
O  8.500  4.500  0.500
O  9.500  5.500  0.500
O  8.500  5.500  1.500
O  9.500  4.500  1.500
O  8.500  7.500  3.500
O  9.500  7.500  2.500
O  9.500  6.500  3.500
O  8.500  6.500  2.500
O  10.5000  5.500  3.500
O  11.5000  4.500  3.500
O  11.5000  5.500  2.500
O  10.5000  4.500  2.500
O  10.5000  7.500  1.500
O  11.5000  6.500  1.500
O  11.5000  7.500  0.500
O  10.5000  6.500  0.500
O  8.500  4.500  4.500
O  9.500  5.500  4.500
O  8.500  5.500  5.500
O  9.500  4.500  5.500
O  8.500  7.500  7.500
O  9.500  7.500  6.500
O  9.500  6.500  7.500
O  8.500  6.500  6.500
O  10.5000  5.500  7.500
O  11.5000  4.500  7.500
O  11.5000  5.500  6.500
O  10.5000  4.500  6.500
O  10.5000  7.500  5.500
O  11.5000  6.500  5.500
O  11.5000  7.500  4.500
O  10.5000  6.500  4.500
O  8.500  4.500  8.500
O  9.500  5.500  8.500
O  8.500  5.500  9.500
O  9.500  4.500  9.500
O  8.500  7.500  11.5000
O  9.500  7.500  10.5000
O  9.500  6.500  11.5000
O  8.500  6.500  10.5000
O  10.5000  5.500  11.5000
O  11.5000  4.500  11.5000
O  11.5000  5.500  10.5000
O  10.5000  4.500  10.5000
O  10.5000  7.500  9.500
O  11.5000  6.500  9.500
O  11.5000  7.500  8.500
O  10.5000  6.500  8.500
O  8.500  4.500  12.5000
O  9.500  5.500  12.5000
O  8.500  5.500  13.5000
O  9.500  4.500  13.5000
O  8.500  7.500  15.5000
O  9.500  7.500  14.5000
O  9.500  6.500  15.5000
O  8.500  6.500  14.5000
O  10.5000  5.500  15.5000
O  11.5000  4.500  15.5000
O  11.5000  5.500  14.5000
O  10.5000  4.500  14.5000
O  10.5000  7.500  13.5000
O  11.5000  6.500  13.5000
O  11.5000  7.500  12.5000
O  10.5000  6.500  12.5000
O  8.500  8.500  0.500
O  9.500  9.500  0.500
O  8.500  9.500  1.500
O  9.500  8.500  1.500
O  8.500  11.5000  3.500
O  9.500  11.5000  2.500
O  9.500  10.5000  3.500
O  8.500  10.5000  2.500
O  10.5000  9.500  3.500
O  11.5000  8.500  3.500
O  11.5000  9.500  2.500
O  10.5000  8.500  2.500
O  10.5000  11.5000  1.500
O  11.5000  10.5000  1.500
O  11.5000  11.5000  0.500
O  10.5000  10.5000  0.500
O  8.500  8.500  4.500
O  9.500  9.500  4.500
O  8.500  9.500  5.500
O  9.500  8.500  5.500
O  8.500  11.5000  7.500
O  9.500  11.5000  6.500
O  9.500  10.5000  7.500
O  8.500  10.5000  6.500
O  10.5000  9.500  7.500
O  11.5000  8.500  7.500
O  11.5000  9.500  6.500
O  10.5000  8.500  6.500
O  10.5000  11.5000  5.500
O  11.5000  10.5000  5.500
O  11.5000  11.5000  4.500
O  10.5000  10.5000  4.500
O  8.500  8.500  8.500
O  9.500  9.500  8.500
O  8.500  9.500  9.500
O  9.500  8.500  9.500
O  8.500  11.5000  11.5000
O  9.500  11.5000  10.5000
O  9.500  10.5000  11.5000
O  8.500  10.5000  10.5000
O  10.5000  9.500  11.5000
O  11.5000  8.500  11.5000
O  11.5000  9.500  10.5000
O  10.5000  8.500  10.5000
O  10.5000  11.5000  9.500
O  11.5000  10.5000  9.500
O  11.5000  11.5000  8.500
O  10.5000  10.5000  8.500
O  8.500  8.500  12.5000
O  9.500  9.500  12.5000
O  8.500  9.500  13.5000
O  9.500  8.500  13.5000
O  8.500  11.5000  15.5000
O  9.500  11.5000  14.5000
O  9.500  10.5000  15.5000
O  8.500  10.5000  14.5000
O  10.5000  9.500  15.5000
O  11.5000  8.500  15.5000
O  11.5000  9.500  14.5000
O  10.5000  8.500  14.5000
O  10.5000  11.5000  13.5000
O  11.5000  10.5000  13.5000
O  11.5000  11.5000  12.5000
O  10.5000  10.5000  12.5000
O  8.500  12.5000  0.500
O  9.500  13.5000  0.500
O  8.500  13.5000  1.500
O  9.500  12.5000  1.500
O  8.500  15.5000  3.500
O  9.500  15.5000  2.500
O  9.500  14.5000  3.500
O  8.500  14.5000  2.500
O  10.5000  13.5000  3.500
O  11.5000  12.5000  3.500
O  11.5000  13.5000  2.500
O  10.5000  12.5000  2.500
O  10.5000  15.5000  1.500
O  11.5000  14.5000  1.500
O  11.5000  15.5000  0.500
O  10.5000  14.5000  0.500
O  8.500  12.5000  4.500
O  9.500  13.5000  4.500
O  8.500  13.5000  5.500
O  9.500  12.5000  5.500
O  8.500  15.5000  7.500
O  9.500  15.5000  6.500
O  9.500  14.5000  7.500
O  8.500  14.5000  6.500
O  10.5000  13.5000  7.500
O  11.5000  12.5000  7.500
O  11.5000  13.5000  6.500
O  10.5000  12.5000  6.500
O  10.5000  15.5000  5.500
O  11.5000  14.5000  5.500
O  11.5000  15.5000  4.500
O  10.5000  14.5000  4.500
O  8.500  12.5000  8.500
O  9.500  13.5000  8.500
O  8.500  13.5000  9.500
O  9.500  12.5000  9.500
O  8.500  15.5000  11.5000
O  9.500  15.5000  10.5000
O  9.500  14.5000  11.5000
O  8.500  14.5000  10.5000
O  10.5000  13.5000  11.5000
O  11.5000  12.5000  11.5000
O  11.5000  13.5000  10.5000
O  10.5000  12.5000  10.5000
O  10.5000  15.5000  9.500
O  11.5000  14.5000  9.500
O  11.5000  15.5000  8.500
O  10.5000  14.5000  8.500
O  8.500  12.5000  12.5000
O  9.500  13.5000  12.5000
O  8.500  13.5000  13.5000
O  9.500  12.5000  13.5000
O  8.500  15.5000  15.5000
O  9.500  15.5000  14.5000
O  9.500  14.5000  15.5000
O  8.500  14.5000  14.5000
O  10.5000  13.5000  15.5000
O  11.5000  12.5000  15.5000
O  11.5000  13.5000  14.5000
O  10.5000  12.5000  14.5000
O  10.5000  15.5000  13.5000
O  11.5000  14.5000  13.5000
O  11.5000  15.5000  12.5000
O  10.5000  14.5000  12.5000
O  12.5000  0.500  0.500
O  13.5000  1.500  0.500
O  12.5000  1.500  1.500
O  13.5000  0.500  1.500
O  12.5000  3.500  3.500
O  13.5000  3.500  2.500
O  13.5000  2.500  3.500
O  12.5000  2.500  2.500
O  14.5000  1.500  3.500
O  15.5000  0.500  3.500
O  15.5000  1.500  2.500
O  14.5000  0.500  2.500
O  14.5000  3.500  1.500
O  15.5000  2.500  1.500
O  15.5000  3.500  0.500
O  14.5000  2.500  0.500
O  12.5000  0.500  4.500
O  13.5000  1.500  4.500
O  12.5000  1.500  5.500
O  13.5000  0.500  5.500
O  12.5000  3.500  7.500
O  13.5000  3.500  6.500
O  13.5000  2.500  7.500
O  12.5000  2.500  6.500
O  14.5000  1.500  7.500
O  15.5000  0.500  7.500
O  15.5000  1.500  6.500
O  14.5000  0.500  6.500
O  14.5000  3.500  5.500
O  15.5000  2.500  5.500
O  15.5000  3.500  4.500
O  14.5000  2.500  4.500
O  12.5000  0.500  8.500
O  13.5000  1.500  8.500
O  12.5000  1.500  9.500
O  13.5000  0.500  9.500
O  12.5000  3.500  11.5000
O  13.5000  3.500  10.5000
O  13.5000  2.500  11.5000
O  12.5000  2.500  10.5000
O  14.5000  1.500  11.5000
O  15.5000  0.500  11.5000
O  15.5000  1.500  10.5000
O  14.5000  0.500  10.5000
O  14.5000  3.500  9.500
O  15.5000  2.500  9.500
O  15.5000  3.500  8.500
O  14.5000  2.500  8.500
O  12.5000  0.500  12.5000
O  13.5000  1.500  12.5000
O  12.5000  1.500  13.5000
O  13.5000  0.500  13.5000
O  12.5000  3.500  15.5000
O  13.5000  3.500  14.5000
O  13.5000  2.500  15.5000
O  12.5000  2.500  14.5000
O  14.5000  1.500  15.5000
O  15.5000  0.500  15.5000
O  15.5000  1.500  14.5000
O  14.5000  0.500  14.5000
O  14.5000  3.500  13.5000
O  15.5000  2.500  13.5000
O  15.5000  3.500  12.5000
O  14.5000  2.500  12.5000
O  12.5000  4.500  0.500
O  13.5000  5.500  0.500
O  12.5000  5.500  1.500
O  13.5000  4.500  1.500
O  12.5000  7.500  3.500
O  13.5000  7.500  2.500
O  13.5000  6.500  3.500
O  12.5000  6.500  2.500
O  14.5000  5.500  3.500
O  15.5000  4.500  3.500
O  15.5000  5.500  2.500
O  14.5000  4.500  2.500
O  14.5000  7.500  1.500
O  15.5000  6.500  1.500
O  15.5000  7.500  0.500
O  14.5000  6.500  0.500
O  12.5000  4.500  4.500
O  13.5000  5.500  4.500
O  12.5000  5.500  5.500
O  13.5000  4.500  5.500
O  12.5000  7.500  7.500
O  13.5000  7.500  6.500
O  13.5000  6.500  7.500
O  12.5000  6.500  6.500
O  14.5000  5.500  7.500
O  15.5000  4.500  7.500
O  15.5000  5.500  6.500
O  14.5000  4.500  6.500
O  14.5000  7.500  5.500
O  15.5000  6.500  5.500
O  15.5000  7.500  4.500
O  14.5000  6.500  4.500
O  12.5000  4.500  8.500
O  13.5000  5.500  8.500
O  12.5000  5.500  9.500
O  13.5000  4.500  9.500
O  12.5000  7.500  11.5000
O  13.5000  7.500  10.5000
O  13.5000  6.500  11.5000
O  12.5000  6.500  10.5000
O  14.5000  5.500  11.5000
O  15.5000  4.500  11.5000
O  15.5000  5.500  10.5000
O  14.5000  4.500  10.5000
O  14.5000  7.500  9.500
O  15.5000  6.500  9.500
O  15.5000  7.500  8.500
O  14.5000  6.500  8.500
O  12.5000  4.500  12.5000
O  13.5000  5.500  12.5000
O  12.5000  5.500  13.5000
O  13.5000  4.500  13.5000
O  12.5000  7.500  15.5000
O  13.5000  7.500  14.5000
O  13.5000  6.500  15.5000
O  12.5000  6.500  14.5000
O  14.5000  5.500  15.5000
O  15.5000  4.500  15.5000
O  15.5000  5.500  14.5000
O  14.5000  4.500  14.5000
O  14.5000  7.500  13.5000
O  15.5000  6.500  13.5000
O  15.5000  7.500  12.5000
O  14.5000  6.500  12.5000
O  12.5000  8.500  0.500
O  13.5000  9.500  0.500
O  12.5000  9.500  1.500
O  13.5000  8.500  1.500
O  12.5000  11.5000  3.500
O  13.5000  11.5000  2.500
O  13.5000  10.5000  3.500
O  12.5000  10.5000  2.500
O  14.5000  9.500  3.500
O  15.5000  8.500  3.500
O  15.5000  9.500  2.500
O  14.5000  8.500  2.500
O  14.5000  11.5000  1.500
O  15.5000  10.5000  1.500
O  15.5000  11.5000  0.500
O  14.5000  10.5000  0.500
O  12.5000  8.500  4.500
O  13.5000  9.500  4.500
O  12.5000  9.500  5.500
O  13.5000  8.500  5.500
O  12.5000  11.5000  7.500
O  13.5000  11.5000  6.500
O  13.5000  10.5000  7.500
O  12.5000  10.5000  6.500
O  14.5000  9.500  7.500
O  15.5000  8.500  7.500
O  15.5000  9.500  6.500
O  14.5000  8.500  6.500
O  14.5000  11.5000  5.500
O  15.5000  10.5000  5.500
O  15.5000  11.5000  4.500
O  14.5000  10.5000  4.500
O  12.5000  8.500  8.500
O  13.5000  9.500  8.500
O  12.5000  9.500  9.500
O  13.5000  8.500  9.500
O  12.5000  11.5000  11.5000
O  13.5000  11.5000  10.5000
O  13.5000  10.5000  11.5000
O  12.5000  10.5000  10.5000
O  14.5000  9.500  11.5000
O  15.5000  8.500  11.5000
O  15.5000  9.500  10.5000
O  14.5000  8.500  10.5000
O  14.5000  11.5000  9.500
O  15.5000  10.5000  9.500
O  15.5000  11.5000  8.500
O  14.5000  10.5000  8.500
O  12.5000  8.500  12.5000
O  13.5000  9.500  12.5000
O  12.5000  9.500  13.5000
O  13.5000  8.500  13.5000
O  12.5000  11.5000  15.5000
O  13.5000  11.5000  14.5000
O  13.5000  10.5000  15.5000
O  12.5000  10.5000  14.5000
O  14.5000  9.500  15.5000
O  15.5000  8.500  15.5000
O  15.5000  9.500  14.5000
O  14.5000  8.500  14.5000
O  14.5000  11.5000  13.5000
O  15.5000  10.5000  13.5000
O  15.5000  11.5000  12.5000
O  14.5000  10.5000  12.5000
O  12.5000  12.5000  0.500
O  13.5000  13.5000  0.500
O  12.5000  13.5000  1.500
O  13.5000  12.5000  1.500
O  12.5000  15.5000  3.500
O  13.5000  15.5000  2.500
O  13.5000  14.5000  3.500
O  12.5000  14.5000  2.500
O  14.5000  13.5000  3.500
O  15.5000  12.5000  3.500
O  15.5000  13.5000  2.500
O  14.5000  12.5000  2.500
O  14.5000  15.5000  1.500
O  15.5000  14.5000  1.500
O  15.5000  15.5000  0.500
O  14.5000  14.5000  0.500
O  12.5000  12.5000  4.500
O  13.5000  13.5000  4.500
O  12.5000  13.5000  5.500
O  13.5000  12.5000  5.500
O  12.5000  15.5000  7.500
O  13.5000  15.5000  6.500
O  13.5000  14.5000  7.500
O  12.5000  14.5000  6.500
O  14.5000  13.5000  7.500
O  15.5000  12.5000  7.500
O  15.5000  13.5000  6.500
O  14.5000  12.5000  6.500
O  14.5000  15.5000  5.500
O  15.5000  14.5000  5.500
O  15.5000  15.5000  4.500
O  14.5000  14.5000  4.500
O  12.5000  12.5000  8.500
O  13.5000  13.5000  8.500
O  12.5000  13.5000  9.500
O  13.5000  12.5000  9.500
O  12.5000  15.5000  11.5000
O  13.5000  15.5000  10.5000
O  13.5000  14.5000  11.5000
O  12.5000  14.5000  10.5000
O  14.5000  13.5000  11.5000
O  15.5000  12.5000  11.5000
O  15.5000  13.5000  10.5000
O  14.5000  12.5000  10.5000
O  14.5000  15.5000  9.500
O  15.5000  14.5000  9.500
O  15.5000  15.5000  8.500
O  14.5000  14.5000  8.500
O  12.5000  12.5000  12.5000
O  13.5000  13.5000  12.5000
O  12.5000  13.5000  13.5000
O  13.5000  12.5000  13.5000
O  12.5000  15.5000  15.5000
O  13.5000  15.5000  14.5000
O  13.5000  14.5000  15.5000
O  12.5000  14.5000  14.5000
O  14.5000  13.5000  15.5000
O  15.5000  12.5000  15.5000
O  15.5000  13.5000  14.5000
O  14.5000  12.5000  14.5000
O  14.5000  15.5000  13.5000
O  15.5000  14.5000  13.5000
O  15.5000  15.5000  12.5000
O  14.5000  14.5000  12.5000
O  0.000  0.000  0.000
O  2.00  2.00  0.000
O  0.000  2.00  2.00
O  2.00  0.000  2.00
O  1.00  1.00  1.00
O  1.00  3.00  3.00
O  3.00  1.00  3.00
O  3.00  3.00  1.00
O  0.000  0.000  4.00
O  2.00  2.00  4.00
O  0.000  2.00  6.00
O  2.00  0.000  6.00
O  1.00  1.00  5.00
O  1.00  3.00  7.00
O  3.00  1.00  7.00
O  3.00  3.00  5.00
O  0.000  0.000  8.00
O  2.00  2.00  8.00
O  0.000  2.00  10.00
O  2.00  0.000  10.00
O  1.00  1.00  9.00
O  1.00  3.00  11.00
O  3.00  1.00  11.00
O  3.00  3.00  9.00
O  0.000  0.000  12.00
O  2.00  2.00  12.00
O  0.000  2.00  14.00
O  2.00  0.000  14.00
O  1.00  1.00  13.00
O  1.00  3.00  15.00
O  3.00  1.00  15.00
O  3.00  3.00  13.00
O  0.000  4.00  0.000
O  2.00  6.00  0.000
O  0.000  6.00  2.00
O  2.00  4.00  2.00
O  1.00  5.00  1.00
O  1.00  7.00  3.00
O  3.00  5.00  3.00
O  3.00  7.00  1.00
O  0.000  4.00  4.00
O  2.00  6.00  4.00
O  0.000  6.00  6.00
O  2.00  4.00  6.00
O  1.00  5.00  5.00
O  1.00  7.00  7.00
O  3.00  5.00  7.00
O  3.00  7.00  5.00
O  0.000  4.00  8.00
O  2.00  6.00  8.00
O  0.000  6.00  10.00
O  2.00  4.00  10.00
O  1.00  5.00  9.00
O  1.00  7.00  11.00
O  3.00  5.00  11.00
O  3.00  7.00  9.00
O  0.000  4.00  12.00
O  2.00  6.00  12.00
O  0.000  6.00  14.00
O  2.00  4.00  14.00
O  1.00  5.00  13.00
O  1.00  7.00  15.00
O  3.00  5.00  15.00
O  3.00  7.00  13.00
O  0.000  8.00  0.000
O  2.00  10.00  0.000
O  0.000  10.00  2.00
O  2.00  8.00  2.00
O  1.00  9.00  1.00
O  1.00  11.00  3.00
O  3.00  9.00  3.00
O  3.00  11.00  1.00
O  0.000  8.00  4.00
O  2.00  10.00  4.00
O  0.000  10.00  6.00
O  2.00  8.00  6.00
O  1.00  9.00  5.00
O  1.00  11.00  7.00
O  3.00  9.00  7.00
O  3.00  11.00  5.00
O  0.000  8.00  8.00
O  2.00  10.00  8.00
O  0.000  10.00  10.00
O  2.00  8.00  10.00
O  1.00  9.00  9.00
O  1.00  11.00  11.00
O  3.00  9.00  11.00
O  3.00  11.00  9.00
O  0.000  8.00  12.00
O  2.00  10.00  12.00
O  0.000  10.00  14.00
O  2.00  8.00  14.00
O  1.00  9.00  13.00
O  1.00  11.00  15.00
O  3.00  9.00  15.00
O  3.00  11.00  13.00
O  0.000  12.00  0.000
O  2.00  14.00  0.000
O  0.000  14.00  2.00
O  2.00  12.00  2.00
O  1.00  13.00  1.00
O  1.00  15.00  3.00
O  3.00  13.00  3.00
O  3.00  15.00  1.00
O  0.000  12.00  4.00
O  2.00  14.00  4.00
O  0.000  14.00  6.00
O  2.00  12.00  6.00
O  1.00  13.00  5.00
O  1.00  15.00  7.00
O  3.00  13.00  7.00
O  3.00  15.00  5.00
O  0.000  12.00  8.00
O  2.00  14.00  8.00
O  0.000  14.00  10.00
O  2.00  12.00  10.00
O  1.00  13.00  9.00
O  1.00  15.00  11.00
O  3.00  13.00  11.00
O  3.00  15.00  9.00
O  0.000  12.00  12.00
O  2.00  14.00  12.00
O  0.000  14.00  14.00
O  2.00  12.00  14.00
O  1.00  13.00  13.00
O  1.00  15.00  15.00
O  3.00  13.00  15.00
O  3.00  15.00  13.00
O  4.00  0.000  0.000
O  6.00  2.00  0.000
O  4.00  2.00  2.00
O  6.00  0.000  2.00
O  5.00  1.00  1.00
O  5.00  3.00  3.00
O  7.00  1.00  3.00
O  7.00  3.00  1.00
O  4.00  0.000  4.00
O  6.00  2.00  4.00
O  4.00  2.00  6.00
O  6.00  0.000  6.00
O  5.00  1.00  5.00
O  5.00  3.00  7.00
O  7.00  1.00  7.00
O  7.00  3.00  5.00
O  4.00  0.000  8.00
O  6.00  2.00  8.00
O  4.00  2.00  10.00
O  6.00  0.000  10.00
O  5.00  1.00  9.00
O  5.00  3.00  11.00
O  7.00  1.00  11.00
O  7.00  3.00  9.00
O  4.00  0.000  12.00
O  6.00  2.00  12.00
O  4.00  2.00  14.00
O  6.00  0.000  14.00
O  5.00  1.00  13.00
O  5.00  3.00  15.00
O  7.00  1.00  15.00
O  7.00  3.00  13.00
O  4.00  4.00  0.000
O  6.00  6.00  0.000
O  4.00  6.00  2.00
O  6.00  4.00  2.00
O  5.00  5.00  1.00
O  5.00  7.00  3.00
O  7.00  5.00  3.00
O  7.00  7.00  1.00
O  4.00  4.00  4.00
O  6.00  6.00  4.00
O  4.00  6.00  6.00
O  6.00  4.00  6.00
O  5.00  5.00  5.00
O  5.00  7.00  7.00
O  7.00  5.00  7.00
O  7.00  7.00  5.00
O  4.00  4.00  8.00
O  6.00  6.00  8.00
O  4.00  6.00  10.00
O  6.00  4.00  10.00
O  5.00  5.00  9.00
O  5.00  7.00  11.00
O  7.00  5.00  11.00
O  7.00  7.00  9.00
O  4.00  4.00  12.00
O  6.00  6.00  12.00
O  4.00  6.00  14.00
O  6.00  4.00  14.00
O  5.00  5.00  13.00
O  5.00  7.00  15.00
O  7.00  5.00  15.00
O  7.00  7.00  13.00
O  4.00  8.00  0.000
O  6.00  10.00  0.000
O  4.00  10.00  2.00
O  6.00  8.00  2.00
O  5.00  9.00  1.00
O  5.00  11.00  3.00
O  7.00  9.00  3.00
O  7.00  11.00  1.00
O  4.00  8.00  4.00
O  6.00  10.00  4.00
O  4.00  10.00  6.00
O  6.00  8.00  6.00
O  5.00  9.00  5.00
O  5.00  11.00  7.00
O  7.00  9.00  7.00
O  7.00  11.00  5.00
O  4.00  8.00  8.00
O  6.00  10.00  8.00
O  4.00  10.00  10.00
O  6.00  8.00  10.00
O  5.00  9.00  9.00
O  5.00  11.00  11.00
O  7.00  9.00  11.00
O  7.00  11.00  9.00
O  4.00  8.00  12.00
O  6.00  10.00  12.00
O  4.00  10.00  14.00
O  6.00  8.00  14.00
O  5.00  9.00  13.00
O  5.00  11.00  15.00
O  7.00  9.00  15.00
O  7.00  11.00  13.00
O  4.00  12.00  0.000
O  6.00  14.00  0.000
O  4.00  14.00  2.00
O  6.00  12.00  2.00
O  5.00  13.00  1.00
O  5.00  15.00  3.00
O  7.00  13.00  3.00
O  7.00  15.00  1.00
O  4.00  12.00  4.00
O  6.00  14.00  4.00
O  4.00  14.00  6.00
O  6.00  12.00  6.00
O  5.00  13.00  5.00
O  5.00  15.00  7.00
O  7.00  13.00  7.00
O  7.00  15.00  5.00
O  4.00  12.00  8.00
O  6.00  14.00  8.00
O  4.00  14.00  10.00
O  6.00  12.00  10.00
O  5.00  13.00  9.00
O  5.00  15.00  11.00
O  7.00  13.00  11.00
O  7.00  15.00  9.00
O  4.00  12.00  12.00
O  6.00  14.00  12.00
O  4.00  14.00  14.00
O  6.00  12.00  14.00
O  5.00  13.00  13.00
O  5.00  15.00  15.00
O  7.00  13.00  15.00
O  7.00  15.00  13.00
O  8.00  0.000  0.000
O  10.00  2.00  0.000
O  8.00  2.00  2.00
O  10.00  0.000  2.00
O  9.00  1.00  1.00
O  9.00  3.00  3.00
O  11.00  1.00  3.00
O  11.00  3.00  1.00
O  8.00  0.000  4.00
O  10.00  2.00  4.00
O  8.00  2.00  6.00
O  10.00  0.000  6.00
O  9.00  1.00  5.00
O  9.00  3.00  7.00
O  11.00  1.00  7.00
O  11.00  3.00  5.00
O  8.00  0.000  8.00
O  10.00  2.00  8.00
O  8.00  2.00  10.00
O  10.00  0.000  10.00
O  9.00  1.00  9.00
O  9.00  3.00  11.00
O  11.00  1.00  11.00
O  11.00  3.00  9.00
O  8.00  0.000  12.00
O  10.00  2.00  12.00
O  8.00  2.00  14.00
O  10.00  0.000  14.00
O  9.00  1.00  13.00
O  9.00  3.00  15.00
O  11.00  1.00  15.00
O  11.00  3.00  13.00
O  8.00  4.00  0.000
O  10.00  6.00  0.000
O  8.00  6.00  2.00
O  10.00  4.00  2.00
O  9.00  5.00  1.00
O  9.00  7.00  3.00
O  11.00  5.00  3.00
O  11.00  7.00  1.00
O  8.00  4.00  4.00
O  10.00  6.00  4.00
O  8.00  6.00  6.00
O  10.00  4.00  6.00
O  9.00  5.00  5.00
O  9.00  7.00  7.00
O  11.00  5.00  7.00
O  11.00  7.00  5.00
O  8.00  4.00  8.00
O  10.00  6.00  8.00
O  8.00  6.00  10.00
O  10.00  4.00  10.00
O  9.00  5.00  9.00
O  9.00  7.00  11.00
O  11.00  5.00  11.00
O  11.00  7.00  9.00
O  8.00  4.00  12.00
O  10.00  6.00  12.00
O  8.00  6.00  14.00
O  10.00  4.00  14.00
O  9.00  5.00  13.00
O  9.00  7.00  15.00
O  11.00  5.00  15.00
O  11.00  7.00  13.00
O  8.00  8.00  0.000
O  10.00  10.00  0.000
O  8.00  10.00  2.00
O  10.00  8.00  2.00
O  9.00  9.00  1.00
O  9.00  11.00  3.00
O  11.00  9.00  3.00
O  11.00  11.00  1.00
O  8.00  8.00  4.00
O  10.00  10.00  4.00
O  8.00  10.00  6.00
O  10.00  8.00  6.00
O  9.00  9.00  5.00
O  9.00  11.00  7.00
O  11.00  9.00  7.00
O  11.00  11.00  5.00
O  8.00  8.00  8.00
O  10.00  10.00  8.00
O  8.00  10.00  10.00
O  10.00  8.00  10.00
O  9.00  9.00  9.00
O  9.00  11.00  11.00
O  11.00  9.00  11.00
O  11.00  11.00  9.00
O  8.00  8.00  12.00
O  10.00  10.00  12.00
O  8.00  10.00  14.00
O  10.00  8.00  14.00
O  9.00  9.00  13.00
O  9.00  11.00  15.00
O  11.00  9.00  15.00
O  11.00  11.00  13.00
O  8.00  12.00  0.000
O  10.00  14.00  0.000
O  8.00  14.00  2.00
O  10.00  12.00  2.00
O  9.00  13.00  1.00
O  9.00  15.00  3.00
O  11.00  13.00  3.00
O  11.00  15.00  1.00
O  8.00  12.00  4.00
O  10.00  14.00  4.00
O  8.00  14.00  6.00
O  10.00  12.00  6.00
O  9.00  13.00  5.00
O  9.00  15.00  7.00
O  11.00  13.00  7.00
O  11.00  15.00  5.00
O  8.00  12.00  8.00
O  10.00  14.00  8.00
O  8.00  14.00  10.00
O  10.00  12.00  10.00
O  9.00  13.00  9.00
O  9.00  15.00  11.00
O  11.00  13.00  11.00
O  11.00  15.00  9.00
O  8.00  12.00  12.00
O  10.00  14.00  12.00
O  8.00  14.00  14.00
O  10.00  12.00  14.00
O  9.00  13.00  13.00
O  9.00  15.00  15.00
O  11.00  13.00  15.00
O  11.00  15.00  13.00
O  12.00  0.000  0.000
O  14.00  2.00  0.000
O  12.00  2.00  2.00
O  14.00  0.000  2.00
O  13.00  1.00  1.00
O  13.00  3.00  3.00
O  15.00  1.00  3.00
O  15.00  3.00  1.00
O  12.00  0.000  4.00
O  14.00  2.00  4.00
O  12.00  2.00  6.00
O  14.00  0.000  6.00
O  13.00  1.00  5.00
O  13.00  3.00  7.00
O  15.00  1.00  7.00
O  15.00  3.00  5.00
O  12.00  0.000  8.00
O  14.00  2.00  8.00
O  12.00  2.00  10.00
O  14.00  0.000  10.00
O  13.00  1.00  9.00
O  13.00  3.00  11.00
O  15.00  1.00  11.00
O  15.00  3.00  9.00
O  12.00  0.000  12.00
O  14.00  2.00  12.00
O  12.00  2.00  14.00
O  14.00  0.000  14.00
O  13.00  1.00  13.00
O  13.00  3.00  15.00
O  15.00  1.00  15.00
O  15.00  3.00  13.00
O  12.00  4.00  0.000
O  14.00  6.00  0.000
O  12.00  6.00  2.00
O  14.00  4.00  2.00
O  13.00  5.00  1.00
O  13.00  7.00  3.00
O  15.00  5.00  3.00
O  15.00  7.00  1.00
O  12.00  4.00  4.00
O  14.00  6.00  4.00
O  12.00  6.00  6.00
O  14.00  4.00  6.00
O  13.00  5.00  5.00
O  13.00  7.00  7.00
O  15.00  5.00  7.00
O  15.00  7.00  5.00
O  12.00  4.00  8.00
O  14.00  6.00  8.00
O  12.00  6.00  10.00
O  14.00  4.00  10.00
O  13.00  5.00  9.00
O  13.00  7.00  11.00
O  15.00  5.00  11.00
O  15.00  7.00  9.00
O  12.00  4.00  12.00
O  14.00  6.00  12.00
O  12.00  6.00  14.00
O  14.00  4.00  14.00
O  13.00  5.00  13.00
O  13.00  7.00  15.00
O  15.00  5.00  15.00
O  15.00  7.00  13.00
O  12.00  8.00  0.000
O  14.00  10.00  0.000
O  12.00  10.00  2.00
O  14.00  8.00  2.00
O  13.00  9.00  1.00
O  13.00  11.00  3.00
O  15.00  9.00  3.00
O  15.00  11.00  1.00
O  12.00  8.00  4.00
O  14.00  10.00  4.00
O  12.00  10.00  6.00
O  14.00  8.00  6.00
O  13.00  9.00  5.00
O  13.00  11.00  7.00
O  15.00  9.00  7.00
O  15.00  11.00  5.00
O  12.00  8.00  8.00
O  14.00  10.00  8.00
O  12.00  10.00  10.00
O  14.00  8.00  10.00
O  13.00  9.00  9.00
O  13.00  11.00  11.00
O  15.00  9.00  11.00
O  15.00  11.00  9.00
O  12.00  8.00  12.00
O  14.00  10.00  12.00
O  12.00  10.00  14.00
O  14.00  8.00  14.00
O  13.00  9.00  13.00
O  13.00  11.00  15.00
O  15.00  9.00  15.00
O  15.00  11.00  13.00
O  12.00  12.00  0.000
O  14.00  14.00  0.000
O  12.00  14.00  2.00
O  14.00  12.00  2.00
O  13.00  13.00  1.00
O  13.00  15.00  3.00
O  15.00  13.00  3.00
O  15.00  15.00  1.00
O  12.00  12.00  4.00
O  14.00  14.00  4.00
O  12.00  14.00  6.00
O  14.00  12.00  6.00
O  13.00  13.00  5.00
O  13.00  15.00  7.00
O  15.00  13.00  7.00
O  15.00  15.00  5.00
O  12.00  12.00  8.00
O  14.00  14.00  8.00
O  12.00  14.00  10.00
O  14.00  12.00  10.00
O  13.00  13.00  9.00
O  13.00  15.00  11.00
O  15.00  13.00  11.00
O  15.00  15.00  9.00
O  12.00  12.00  12.00
O  14.00  14.00  12.00
O  12.00  14.00  14.00
O  14.00  12.00  14.00
O  13.00  13.00  13.00
O  13.00  15.00  15.00
O  15.00  13.00  15.00
O  15.00  15.00  13.00
