 9
Silica   nattached =      0
O    -20.00000000   -20.00000000     0.00000000
O      0.00000000   -20.00000000     0.00000000
O     20.00000000   -20.00000000     0.00000000
O    -20.00000000     0.00000000     0.00000000
Si     0.00000000     0.00000000     0.00000000
O     20.00000000     0.00000000     0.00000000
O    -20.00000000    20.00000000     0.00000000
O      0.00000000    20.00000000     0.00000000
O     20.00000000    20.00000000     0.00000000
 
