 29
Gases    35.66430000   35.66430000 1000.00000000
CO      1.605597     2.440213    21.956442
OC      0.964142     3.408266    21.609593
OC      2.373690     1.486202    22.264263
CO    -13.292766     6.592360    21.751668
OC    -12.460406     6.695648    20.726080
OC    -14.271117     6.392824    22.566890
CO     -1.695769     7.469939    24.309052
OC     -2.391621     8.121170    24.989284
OC     -0.952675     6.784332    23.583585
CO      7.875306     4.086992    24.226266
OC      7.676973     5.063914    24.906122
OC      8.149791     3.171288    23.417555
CO      7.013632     2.646399    20.432372
OC      5.967953     2.109553    20.253959
OC      8.111973     3.249898    20.663939
CO    -13.697855    12.493731    20.807661
OC    -14.575632    13.370310    20.587160
OC    -12.915074    11.810218    21.071341
CO    -17.051983     9.154579    20.005182
OC    -17.615169     8.563399    19.033633
OC    -16.526183     9.663274    20.851574
CO     -1.041529    10.790117    21.939090
OC     -1.519532     9.745936    21.756291
OC     -0.667880    11.908481    22.236732
CO    -12.829171    17.507023    20.621744
OC    -12.747257    17.434106    21.640364
OC    -12.956983    17.545761    19.420000
Ar    -17.832001   -17.832001   -10.000000
Ar    -17.832001   -17.832001   100.000000
 
