 29
Gases    35.66430000   35.66430000 1000.00000000
CO      1.245398     1.428420    21.783276
OC      2.142745     0.763663    22.405311
OC      0.351089     1.994727    21.121583
CO    -13.356062     7.210100    21.641298
OC    -12.159021     6.922699    21.703173
OC    -14.500169     7.328535    21.308336
CO     -0.063958     5.913002    24.723874
OC      0.219898     4.974714    25.583624
OC     -0.343558     6.806397    23.895210
CO      9.969677     4.791625    25.908747
OC      9.559683     5.527874    24.972832
OC     10.343804     3.993144    26.810554
CO      8.350194     4.630645    20.716215
OC      9.442104     5.249719    20.897526
OC      7.280379     4.043066    20.575943
CO    -11.186551    11.588812    18.304240
OC    -11.618292    11.017310    17.608672
OC    -10.732930    12.355149    19.156066
CO     15.542538    11.988170    19.209530
OC     14.433581    11.825303    19.279755
OC     16.771951    12.151206    19.102738
CO     -2.158603     6.010643    24.075295
OC     -1.186547     5.821533    24.770741
OC     -3.039830     6.193293    23.387986
CO    -16.957258   -16.812898    18.731969
OC    -15.817201   -16.847122    19.223613
OC     17.705456   -16.822290    18.321003
Ar    -17.832001   -17.832001   -10.000000
Ar    -17.832001   -17.832001   100.000000
 
