 29
Gases    35.66430000   35.66430000 1000.00000000
CO      1.696572     2.457109    21.913227
OC      1.031004     3.267582    21.462469
OC      2.219166     1.629100    22.390176
CO    -13.431317     6.570848    21.572079
OC    -12.728222     6.859444    20.747439
OC    -13.908097     6.422558    22.648077
CO     -1.605060     7.398600    24.266099
OC     -2.246677     7.971595    24.978648
OC     -1.014347     6.861198    23.613239
CO      8.053493     4.205851    24.186814
OC      8.001042     5.059575    25.085236
OC      8.046864     3.297465    23.419625
CO      7.113089     2.584885    20.578849
OC      6.213308     1.933701    20.185752
OC      7.967888     3.153629    20.893682
CO    -13.622350    12.666139    20.680779
OC    -14.430397    13.322426    20.390387
OC    -12.672098    11.833766    20.979768
CO    -17.170605     9.222048    19.876534
OC    -17.757939     8.722066    19.138487
OC    -16.503947     9.818481    20.737314
CO     -1.227130    10.607374    22.140543
OC     -1.550308     9.468739    21.902909
OC     -0.816956    11.665677    22.281920
CO    -13.065686    17.571977    20.413240
OC    -12.899337    17.577609    21.802274
OC    -13.197806    17.582460    19.237502
Ar    -17.832001   -17.832001   -10.000000
Ar    -17.832001   -17.832001   100.000000
 
