 29
Gases    35.66430000   35.66430000 1000.00000000
CO      1.648625     2.441985    21.838970
OC      1.200104     3.075406    20.835991
OC      2.024964     1.780114    22.878301
CO    -13.397205     6.788985    21.631922
OC    -13.590639     7.232679    20.374384
OC    -13.094782     6.363210    22.855942
CO     -1.447983     7.252410    24.291815
OC     -2.075298     7.727772    25.267480
OC     -0.809210     6.759075    23.300792
CO      8.448736     4.456159    24.385031
OC      9.068978     4.908666    25.332703
OC      7.784705     3.932006    23.496965
CO      7.284904     2.225289    20.752630
OC      6.888189     1.455031    19.817439
OC      7.729988     2.997643    21.675661
CO    -13.047471    12.731445    20.311452
OC    -14.015848    13.260699    19.860387
OC    -12.155049    12.190965    20.686664
CO    -17.387575     9.674442    19.839597
OC     17.338207     9.086972    19.308885
OC    -16.498024    10.251936    20.353638
CO     -1.588964     9.831133    22.523151
OC     -1.725403     8.672889    22.435094
OC     -1.355527    10.996744    22.539323
CO    -13.684171   -17.790910    20.355608
OC    -13.509498   -17.608339    21.327506
OC    -13.853442    17.707967    19.320391
Ar    -17.832001   -17.832001   -10.000000
Ar    -17.832001   -17.832001   100.000000
 
