 29
Gases    35.66430000   35.66430000 1000.00000000
CO      1.387517     1.942958    21.784179
OC      2.068412     1.362452    20.872344
OC      0.817159     2.530704    22.707658
CO    -13.443042     7.002786    21.572548
OC    -14.234256     6.894031    22.434572
OC    -12.487598     7.311260    20.669318
CO     -0.807233     6.559724    24.446827
OC     -1.055130     6.304331    25.687744
OC     -0.572065     6.808066    23.262503
CO      9.591684     4.994816    25.033614
OC     10.128642     4.007270    24.446424
OC      9.126667     6.001072    25.533090
CO      7.998102     3.273778    20.842795
OC      9.077374     3.083176    20.122394
OC      6.980512     3.432606    21.478415
CO    -11.869966    12.981101    19.031490
OC    -12.631162    12.932723    18.316649
OC    -11.014193    12.953861    19.804073
CO     17.049827    10.893189    19.959652
OC     16.086343    10.656791    20.463422
OC    -17.524730    11.151852    19.386269
CO     -2.377209     7.195119    23.533929
OC     -2.418317     6.159664    24.090308
OC     -2.355619     8.214835    23.006133
CO    -15.489294   -17.349323    19.400648
OC    -14.694984   -17.457324    20.286984
OC    -16.189992   -17.225552    18.570782
Ar    -17.832001   -17.832001   -10.000000
Ar    -17.832001   -17.832001   100.000000
 
