 29
Gases    35.66430000   35.66430000 1000.00000000
CO      1.225464     1.362569    21.747853
OC      2.045243     0.904824    22.493100
OC      0.424592     1.871277    21.078724
CO    -13.288679     7.134184    21.453611
OC    -12.233018     7.022299    21.573387
OC    -14.454810     7.288196    21.590668
CO     -0.047209     5.854718    24.739830
OC      0.295720     4.955364    25.516858
OC     -0.369953     6.719272    24.000144
CO      9.954980     4.724551    25.976567
OC      9.491564     5.630503    25.186140
OC     10.395596     3.862015    26.764994
CO      8.339685     4.734903    20.732324
OC      9.461286     5.399326    20.948266
OC      7.328151     4.102048    20.496822
CO    -11.135494    11.585490    18.401921
OC    -11.540257    10.828650    17.708631
OC    -10.673307    12.334042    19.107166
CO     15.445022    11.999395    19.134641
OC     14.387572    11.740641    19.204833
OC     16.634236    12.267039    19.089780
CO     -2.009882     5.994880    24.073857
OC     -1.055915     5.806517    24.843701
OC     -3.005627     6.190244    23.393683
CO    -17.027185   -16.833331    18.705929
OC    -15.856035   -16.734661    19.205574
OC     17.548135   -16.905819    18.228660
Ar    -17.832001   -17.832001   -10.000000
Ar    -17.832001   -17.832001   100.000000
 
