 29
Gases    35.66430000   35.66430000 1000.00000000
CO      1.690808     2.475818    21.930379
OC      0.896978     3.442770    21.743418
OC      2.391180     1.406825    22.181865
CO    -13.407892     6.462703    21.564008
OC    -12.273762     6.617470    20.902075
OC    -14.364924     6.439359    22.550394
CO     -1.723096     7.498772    24.300700
OC     -2.487990     8.212558    24.993660
OC     -0.938958     6.754864    23.594451
CO      7.832439     4.096218    24.104747
OC      7.430373     4.978552    24.790696
OC      8.180510     3.100114    23.513614
CO      6.970446     2.761766    20.400305
OC      5.839573     2.234738    20.276785
OC      8.149372     3.257142    20.466584
CO    -13.805300    12.529667    20.957073
OC    -14.654041    13.345252    20.712002
OC    -13.070433    11.738612    21.111415
CO    -16.995117     9.040442    20.011075
OC    -17.492824     8.491612    19.014707
OC    -16.550143     9.568946    20.945874
CO     -1.047881    10.986978    21.929037
OC     -1.438864     9.931609    21.605616
OC     -0.521223    12.037718    22.155639
CO    -12.705998    17.423519    20.632402
OC    -12.621012    17.354004    21.606362
OC    -12.770923    17.541587    19.577474
Ar    -17.832001   -17.832001   -10.000000
Ar    -17.832001   -17.832001   100.000000
 
