 29
Gases    35.66430000   35.66430000 1000.00000000
CO      1.565805     2.227051    21.795158
OC      1.712346     2.163772    20.616850
OC      1.312991     2.273591    23.018849
CO    -13.356140     6.979438    21.631870
OC    -14.595147     7.157779    21.368387
OC    -12.189108     6.803744    21.747108
CO     -1.132548     6.890202    24.397898
OC     -1.532415     6.992209    25.495128
OC     -0.703687     6.771059    23.229307
CO      9.108397     4.810126    24.722784
OC     10.174618     4.279214    25.019592
OC      7.956418     5.283126    24.476748
CO      7.756840     2.578433    20.773648
OC      8.370227     2.049774    19.856520
OC      7.156644     3.166807    21.771923
CO    -12.171560    12.934255    19.744632
OC    -13.251572    13.063045    19.073277
OC    -11.275945    12.824970    20.297464
CO     17.732253    10.364735    19.847375
OC     16.553606     9.879924    19.931405
OC    -16.908173    10.792715    19.762881
CO     -2.100441     8.313115    23.153020
OC     -2.198112     7.181769    23.367708
OC     -1.932639     9.489105    22.878841
CO    -14.687387   -17.498878    19.938063
OC    -14.291311   -17.388260    20.949867
OC    -15.164151   -17.661816    18.754420
Ar    -17.832001   -17.832001   -10.000000
Ar    -17.832001   -17.832001   100.000000
 
