 29
Gases    35.66430000   35.66430000 1000.00000000
CO      1.668035     2.461802    21.873578
OC      1.115176     3.174465    21.090593
OC      2.125361     1.709674    22.686206
CO    -13.457492     6.644081    21.627215
OC    -13.204605     7.111383    20.479187
OC    -13.424715     6.390111    22.811557
CO     -1.527855     7.328295    24.283991
OC     -2.152886     7.843807    25.141455
OC     -0.899452     6.804706    23.425070
CO      8.270588     4.349331    24.303845
OC      8.584437     4.968859    25.216998
OC      7.903840     3.646224    23.456927
CO      7.186710     2.364817    20.685216
OC      6.566730     1.632087    19.988267
OC      7.855937     3.100484    21.376423
CO    -13.295019    12.677354    20.468534
OC    -14.198676    13.297268    20.102307
OC    -12.402340    12.035298    20.810639
CO    -17.272753     9.482391    19.869407
OC     17.596402     8.916301    19.221297
OC    -16.496217    10.049668    20.509250
CO     -1.420585    10.178426    22.340679
OC     -1.641747     9.050658    22.198613
OC     -1.123267    11.295242    22.422474
CO    -13.398310    17.733807    20.401975
OC    -13.236027    17.821510    21.508997
OC    -13.559742    17.648579    19.278745
Ar    -17.832001   -17.832001   -10.000000
Ar    -17.832001   -17.832001   100.000000
 
