 29
Gases    35.66430000   35.66430000 1000.00000000
CO      1.449306     1.891012    21.787267
OC      2.028387     1.293258    21.000678
OC      0.766759     2.502507    22.566981
CO    -13.374476     7.198522    21.543019
OC    -14.030302     6.797340    22.478174
OC    -12.739818     7.291492    20.639125
CO     -0.759209     6.500355    24.513666
OC     -0.952686     6.217687    25.599976
OC     -0.551144     6.792100    23.349899
CO      9.724688     5.031529    25.021309
OC     10.072805     4.025187    24.405282
OC      9.321083     6.018921    25.701938
CO      8.066199     3.358242    20.776224
OC      9.122697     3.266654    20.178263
OC      6.962975     3.496760    21.453375
CO    -11.764815    12.890657    18.974223
OC    -12.639455    12.891336    18.115393
OC    -11.038213    12.903410    19.710781
CO     17.041614    10.995505    19.891860
OC     15.984317    10.774163    20.485113
OC    -17.700114    11.203889    19.380573
CO     -2.437077     7.033723    23.632224
OC     -2.379355     6.014878    24.216976
OC     -2.425612     8.083211    22.967792
CO    -15.527422   -17.304253    19.403707
OC    -14.748385   -17.465770    20.209475
OC    -16.444701   -17.130832    18.469774
Ar    -17.832001   -17.832001   -10.000000
Ar    -17.832001   -17.832001   100.000000
 
