 29
Gases    35.66430000   35.66430000 1000.00000000
CO      1.461955     2.010957    21.808171
OC      2.020958     1.460302    20.790948
OC      0.853771     2.515300    22.781713
CO    -13.331750     7.040413    21.594113
OC    -14.459047     6.908870    22.348610
OC    -12.348368     7.233284    20.746901
CO     -0.864799     6.614571    24.431555
OC     -1.136066     6.408809    25.678077
OC     -0.601012     6.811105    23.235385
CO      9.540976     4.997981    24.940065
OC     10.130984     4.029271    24.555360
OC      8.906700     5.904283    25.380057
CO      7.975215     3.151697    20.821656
OC      8.945717     2.920815    20.142547
OC      7.048805     3.372319    21.491883
CO    -11.886447    12.956341    19.140409
OC    -12.652903    12.975197    18.521428
OC    -11.028197    13.021556    19.888867
CO     17.167743    10.806338    19.959829
OC     16.162761    10.534026    20.421558
OC    -17.409910    11.090514    19.428584
CO     -2.348062     7.348323    23.471377
OC     -2.437335     6.326858    23.949799
OC     -2.278727     8.348348    23.027554
CO    -15.354370   -17.366410    19.440868
OC    -14.669180   -17.453159    20.366677
OC    -15.982312   -17.322649    18.648844
Ar    -17.832001   -17.832001   -10.000000
Ar    -17.832001   -17.832001   100.000000
 
