 29
Gases    35.66430000   35.66430000 1000.00000000
CO      1.184357     1.416666    21.813632
OC      1.830228     1.235924    22.737069
OC      0.552110     1.688774    20.938990
CO    -13.332466     7.106096    21.477721
OC    -12.137509     7.167311    21.039469
OC    -14.453497     7.160959    22.147560
CO     -0.007321     5.715553    24.785401
OC      0.472798     4.898741    25.332196
OC     -0.467016     6.496825    24.275003
CO      9.900259     4.669314    26.171096
OC      9.384921     5.637097    25.910344
OC     10.435729     3.701509    26.460981
CO      8.407820     5.009562    20.721534
OC      9.252073     5.634456    21.047914
OC      7.623361     4.388067    20.361370
CO    -11.012254    11.347659    18.481511
OC    -11.371919    10.399447    17.996601
OC    -10.491338    12.441038    19.101471
CO     15.291624    12.030805    19.127994
OC     14.363714    11.496466    19.315129
OC     16.302066    12.596209    18.985513
CO     -1.753921     5.987972    24.118060
OC     -0.871913     5.790831    24.880939
OC     -2.627852     6.180209    23.471628
CO    -17.270662   -16.820465    18.581881
OC    -16.178774   -16.486792    19.082030
OC     17.438155   -17.116999    18.127544
Ar    -17.832001   -17.832001   -10.000000
Ar    -17.832001   -17.832001   100.000000
 
