 29
Gases    35.66430000   35.66430000 1000.00000000
CO      1.478465     2.146974    21.819747
OC      1.798622     1.980798    20.762243
OC      1.224580     2.340389    22.840756
CO    -13.388290     7.096957    21.501762
OC    -14.485807     7.038283    21.710935
OC    -12.279298     6.909204    21.483211
CO     -1.041671     6.799084    24.376468
OC     -1.378010     6.823793    25.422666
OC     -0.726932     6.783135    23.376515
CO      9.182189     4.832900    24.825146
OC     10.213483     4.203916    24.875470
OC      8.210975     5.518541    24.735003
CO      7.865644     2.761928    20.838421
OC      8.544842     2.295558    20.004868
OC      7.161598     3.207459    21.627390
CO    -12.123032    13.015520    19.562134
OC    -13.032188    13.003676    18.931536
OC    -11.072691    12.943967    20.238548
CO     17.503309    10.463150    19.860448
OC     16.490872    10.095443    20.077671
OC    -17.051182    10.884521    19.666635
CO     -2.181449     8.010765    23.247529
OC     -2.327902     6.881223    23.547090
OC     -2.032183     9.098129    22.946376
CO    -14.937437   -17.503418    19.716076
OC    -14.357502   -17.385899    20.907465
OC    -15.436130   -17.564256    18.638863
Ar    -17.832001   -17.832001   -10.000000
Ar    -17.832001   -17.832001   100.000000
 
