 29
Gases    35.66430000   35.66430000 1000.00000000
CO      1.610982     2.452419    21.892914
OC      1.124526     3.190311    21.255060
OC      2.170875     1.709721    22.549771
CO    -13.294135     6.728595    21.716301
OC    -13.089258     6.964347    20.580091
OC    -13.657846     6.370726    22.669668
CO     -1.581077     7.373359    24.307077
OC     -2.154377     7.866640    25.032537
OC     -0.963466     6.844422    23.518885
CO      8.159533     4.259345    24.321713
OC      8.366353     5.017068    25.142516
OC      7.969263     3.521307    23.417010
CO      7.146888     2.412928    20.614419
OC      6.449481     1.774099    20.102142
OC      7.885674     3.120452    21.191499
CO    -13.342386    12.600693    20.571992
OC    -14.325097    13.339806    20.202416
OC    -12.531560    11.977221    20.868916
CO    -17.181589     9.425955    19.918998
OC     17.707748     8.829478    19.177135
OC    -16.523705     9.936044    20.570113
CO     -1.309204    10.307637    22.223578
OC     -1.617861     9.234052    22.098833
OC     -1.018598    11.449384    22.379834
CO    -13.256883    17.669984    20.506353
OC    -13.100132    17.724937    21.646235
OC    -13.433041    17.617984    19.158376
Ar    -17.832001   -17.832001   -10.000000
Ar    -17.832001   -17.832001   100.000000
 
