 29
Gases    35.66430000   35.66430000 1000.00000000
CO      1.621573     2.425924    21.948911
OC      0.990851     3.369678    21.556734
OC      2.328193     1.542193    22.305588
CO    -13.295503     6.619843    21.776079
OC    -12.561156     6.741501    20.693810
OC    -14.171380     6.388170    22.570569
CO     -1.660447     7.439375    24.294313
OC     -2.340891     8.070538    24.982770
OC     -0.978635     6.815696    23.596584
CO      7.938484     4.117218    24.222244
OC      7.785579     5.077730    24.974183
OC      8.115255     3.207150    23.405032
CO      7.057391     2.615402    20.467274
OC      6.044608     2.050321    20.237475
OC      8.062857     3.223888    20.749457
CO    -13.680999    12.579525    20.771670
OC    -14.524922    13.345707    20.514676
OC    -12.825594    11.805756    21.037802
CO    -17.088548     9.173382    19.941356
OC    -17.667016     8.617685    19.074329
OC    -16.517519     9.719161    20.821273
CO     -1.096962    10.729075    22.007083
OC     -1.534561     9.646960    21.806728
OC     -0.720358    11.827710    22.252628
CO    -12.918650    17.521009    20.536311
OC    -12.795347    17.484668    21.709996
OC    -13.038182    17.560489    19.352153
Ar    -17.832001   -17.832001   -10.000000
Ar    -17.832001   -17.832001   100.000000
 
