 29
Gases    35.66430000   35.66430000 1000.00000000
CO      1.594177     2.443363    21.920359
OC      1.118298     3.208985    21.327191
OC      2.196086     1.699710    22.479109
CO    -13.255796     6.716923    21.672136
OC    -13.005710     6.909444    20.652839
OC    -13.767575     6.377480    22.643259
CO     -1.592056     7.381157    24.292744
OC     -2.172080     7.892368    24.998806
OC     -0.992888     6.861980    23.565974
CO      8.096400     4.210000    24.305328
OC      8.252562     5.045430    25.114613
OC      8.005221     3.453959    23.403960
CO      7.149789     2.470394    20.599470
OC      6.372845     1.834491    20.141749
OC      7.899037     3.125136    21.086832
CO    -13.446713    12.584574    20.575466
OC    -14.360986    13.351107    20.276579
OC    -12.572331    11.939689    20.919937
CO    -17.194174     9.362724    19.917601
OC     17.784790     8.792971    19.161669
OC    -16.512861     9.891249    20.617966
CO     -1.237609    10.401614    22.156026
OC     -1.610896     9.318299    22.047352
OC     -0.966535    11.524713    22.360396
CO    -13.181882    17.649364    20.473926
OC    -13.031631    17.669426    21.729409
OC    -13.361362    17.599514    19.153635
Ar    -17.832001   -17.832001   -10.000000
Ar    -17.832001   -17.832001   100.000000
 
