 29
Gases    35.66430000   35.66430000 1000.00000000
CO      1.609183     2.420574    21.871385
OC      1.184466     3.128046    20.865642
OC      2.078712     1.757480    22.845141
CO    -13.265571     6.865448    21.626216
OC    -13.553809     7.174913    20.361602
OC    -13.227354     6.314797    22.887106
CO     -1.455278     7.258629    24.273071
OC     -2.115036     7.774885    25.265046
OC     -0.820925     6.762979    23.313875
CO      8.375362     4.383069    24.389107
OC      8.962714     4.943660    25.300590
OC      7.822361     3.876033    23.471885
CO      7.295540     2.272595    20.749412
OC      6.780823     1.471845    19.838674
OC      7.759506     3.034332    21.622063
CO    -13.159584    12.743613    20.324071
OC    -14.037295    13.257600    19.931816
OC    -12.202296    12.144644    20.724203
CO    -17.395954     9.605887    19.818270
OC     17.410742     9.047672    19.292250
OC    -16.475318    10.213975    20.405798
CO     -1.509644     9.930227    22.452078
OC     -1.718249     8.760918    22.385541
OC     -1.314087    11.070113    22.520602
CO    -13.626066    17.824438    20.309361
OC    -13.442648   -17.666906    21.354733
OC    -13.769554    17.702244    19.369253
Ar    -17.832001   -17.832001   -10.000000
Ar    -17.832001   -17.832001   100.000000
 
