 29
Gases    35.66430000   35.66430000 1000.00000000
CO      0.980553     2.166314    22.199878
OC      1.186164     1.737126    23.339466
OC      0.819553     2.622667    21.149523
CO    -13.289924     7.058152    21.583726
OC    -13.284254     7.314504    20.332778
OC    -13.079349     6.916575    22.966317
CO      0.046360     5.306218    24.957316
OC      0.927511     4.527247    24.988472
OC     -0.773640     6.023707    24.928664
CO      9.809259     4.474787    26.759248
OC      9.524008     4.957480    27.782220
OC     10.159022     4.007347    25.776532
CO      8.510104     5.821606    20.620514
OC      8.925463     6.527399    21.394554
OC      8.142551     5.193665    19.907664
CO    -10.514380    10.857061    18.870681
OC    -10.643468     9.744642    19.064494
OC    -10.248956    12.146937    18.673012
CO     15.069085    12.171796    19.357534
OC     15.092632    11.268407    19.928594
OC     15.058864    13.194337    18.766505
CO     -0.853998     6.158037    24.306263
OC     -0.250557     5.653836    25.136342
OC     -1.397974     6.618158    23.507121
CO    -17.705165   -16.927625    18.191122
OC    -16.708698   -16.316533    18.468304
OC     17.116578   -17.413510    17.927180
Ar    -17.832001   -17.832001   -10.000000
Ar    -17.832001   -17.832001   100.000000
 
