 29
Gases    35.66430000   35.66430000 1000.00000000
CO      1.230826     1.420168    21.827113
OC      1.878314     1.102219    22.588555
OC      0.521985     1.678290    20.987688
CO    -13.350802     7.240465    21.637377
OC    -12.177082     7.070181    21.192444
OC    -14.427239     7.160309    21.856526
CO     -0.001446     5.738776    24.798043
OC      0.379466     4.968395    25.369321
OC     -0.415573     6.564239    24.177759
CO      9.931895     4.724667    26.105888
OC      9.418224     5.636885    25.603192
OC     10.422713     3.737078    26.589634
CO      8.451711     4.923654    20.712676
OC      9.316185     5.535022    21.014166
OC      7.473708     4.259004    20.420140
CO    -10.969473    11.485772    18.506479
OC    -11.478131    10.542771    17.853075
OC    -10.594490    12.390126    19.088695
CO     15.430220    12.048392    19.136169
OC     14.352875    11.583323    19.214617
OC     16.383932    12.439370    19.027448
CO     -1.857130     5.983183    24.159624
OC     -0.918761     5.795342    24.861368
OC     -2.809614     6.184913    23.403798
CO    -17.080386   -16.790284    18.658565
OC    -16.040333   -16.594947    19.140641
OC     17.402510   -17.056075    18.137109
Ar    -17.832001   -17.832001   -10.000000
Ar    -17.832001   -17.832001   100.000000
 
