 29
Gases    35.66430000   35.66430000 1000.00000000
CO      1.651379     2.394515    21.979087
OC      0.931656     3.448088    21.859724
OC      2.400405     1.439960    22.056771
CO    -13.295470     6.492685    21.756403
OC    -12.270338     6.469466    21.006536
OC    -14.445567     6.434199    22.317338
CO     -1.733632     7.496341    24.284036
OC     -2.535762     8.261610    24.952483
OC     -0.982756     6.787046    23.656050
CO      7.718092     3.965089    24.112542
OC      7.220511     4.926246    24.611281
OC      8.230824     3.100670    23.573548
CO      6.979012     2.829385    20.293885
OC      5.768756     2.409257    20.330482
OC      8.091780     3.244489    20.292943
CO    -14.026371    12.564526    20.997663
OC    -14.700666    13.331979    20.878267
OC    -13.171980    11.659904    21.195321
CO    -16.991908     8.918019    19.963711
OC    -17.340526     8.439169    19.041396
OC    -16.569532     9.467571    21.037071
CO     -0.882027    11.165261    21.791189
OC     -1.419567    10.129770    21.505637
OC     -0.445481    12.164444    22.123218
CO    -12.549286    17.411474    20.576672
OC    -12.499447    17.243011    21.710874
OC    -12.605352    17.525778    19.648939
Ar    -17.832001   -17.832001   -10.000000
Ar    -17.832001   -17.832001   100.000000
 
