 29
Gases    35.66430000   35.66430000 1000.00000000
CO      1.372846     1.740166    21.762394
OC      2.106813     0.980040    21.332454
OC      0.618056     2.490985    22.228494
CO    -13.285420     7.061731    21.547252
OC    -13.483552     6.723247    22.762385
OC    -13.339719     7.539756    20.325868
CO     -0.567864     6.346967    24.548686
OC     -0.667759     5.892247    25.560881
OC     -0.461032     6.806060    23.522441
CO      9.892331     5.051452    25.200628
OC      9.934321     4.338994    24.336491
OC      9.802382     5.721582    26.091699
CO      8.125251     3.707122    20.784483
OC      9.127134     3.783836    20.389204
OC      7.147090     3.623872    21.180271
CO    -11.647501    12.566554    18.701977
OC    -12.425399    12.489380    17.783565
OC    -10.991752    12.721814    19.555130
CO     16.683432    11.272538    19.824773
OC     15.676299    11.107524    20.354932
OC     17.656969    11.400144    19.269127
CO     -2.451314     6.632684    23.738629
OC     -2.234560     5.866840    24.481022
OC     -2.727872     7.467348    23.018839
CO    -15.922898   -17.125907    19.202279
OC    -15.070924   -17.402939    19.844969
OC    -16.848168   -16.882970    18.525385
Ar    -17.832001   -17.832001   -10.000000
Ar    -17.832001   -17.832001   100.000000
 
