 29
Gases    35.66430000   35.66430000 1000.00000000
CO      1.215944     1.350174    21.772942
OC      1.988296     0.981764    22.517556
OC      0.467880     1.803987    21.050127
CO    -13.298976     7.046384    21.503164
OC    -12.234127     7.087459    21.453312
OC    -14.434186     7.289281    21.680487
CO     -0.028710     5.808692    24.767008
OC      0.322236     4.966008    25.462625
OC     -0.383939     6.667171    24.058616
CO      9.922516     4.694345    26.006388
OC      9.472618     5.656085    25.319784
OC     10.419621     3.819450    26.720780
CO      8.385413     4.795324    20.728580
OC      9.422487     5.453479    20.972279
OC      7.361443     4.146698    20.467319
CO    -11.086470    11.610564    18.465273
OC    -11.515921    10.714194    17.747275
OC    -10.646044    12.326570    19.087815
CO     15.460668    11.992895    19.107045
OC     14.363604    11.697722    19.196525
OC     16.538237    12.330181    19.079884
CO     -1.967797     5.994989    24.143442
OC     -0.993830     5.798951    24.843116
OC     -2.953090     6.186941    23.375070
CO    -17.015877   -16.840378    18.711676
OC    -15.910622   -16.678874    19.183151
OC     17.470741   -16.950214    18.182314
Ar    -17.832001   -17.832001   -10.000000
Ar    -17.832001   -17.832001   100.000000
 
