 29
Gases    35.66430000   35.66430000 1000.00000000
CO      1.091239     1.805582    22.004869
OC      1.591929     1.516567    23.077458
OC      0.631086     2.014792    20.929345
CO    -13.188183     7.092618    21.626177
OC    -12.658843     7.264983    20.643797
OC    -13.932966     7.039256    22.512775
CO      0.029169     5.524258    24.865189
OC      0.810114     4.582547    25.258341
OC     -0.726881     6.419736    24.484678
CO      9.859347     4.573366    26.476819
OC      9.264302     5.610300    26.906658
OC     10.464705     3.548983    26.012356
CO      8.490324     5.382057    20.664358
OC      9.223160     6.195172    21.337027
OC      7.745535     4.599619    20.041013
CO    -10.730152    11.080883    18.689645
OC    -11.045864    10.146517    18.514546
OC    -10.407819    12.246005    18.882747
CO     15.109879    12.148990    19.361734
OC     14.466337    11.308422    19.902389
OC     15.788419    13.039497    18.778637
CO     -1.391417     6.021826    24.236726
OC     -0.506301     5.709561    25.042459
OC     -2.167181     6.314444    23.420568
CO    -17.568060   -16.771071    18.408380
OC    -16.630297   -16.070495    18.889248
OC     17.281239   -17.408840    18.004734
Ar    -17.832001   -17.832001   -10.000000
Ar    -17.832001   -17.832001   100.000000
 
