 29
Gases    35.66430000   35.66430000 1000.00000000
CO      1.165526     1.598256    21.898627
OC      1.762818     1.347964    22.956375
OC      0.542289     1.778002    20.840323
CO    -13.253603     7.229006    21.633577
OC    -12.251406     7.176209    20.746143
OC    -14.355037     7.050006    22.355838
CO      0.018351     5.613174    24.833390
OC      0.650205     4.727151    25.314988
OC     -0.617572     6.512956    24.336854
CO      9.915796     4.632979    26.317879
OC      9.298346     5.654102    26.343761
OC     10.451619     3.600854    26.254881
CO      8.454843     5.169100    20.685840
OC      9.206535     5.848221    21.160086
OC      7.705909     4.500018    20.246190
CO    -10.798229    11.332870    18.642881
OC    -11.278791    10.215948    18.182654
OC    -10.479022    12.350572    18.995504
CO     15.231416    12.096412    19.233546
OC     14.325357    11.350551    19.533880
OC     16.139374    12.819976    18.873885
CO     -1.561026     5.982396    24.196882
OC     -0.782833     5.778808    24.890981
OC     -2.397956     6.209375    23.486568
CO    -17.330348   -16.765953    18.531739
OC    -16.465029   -16.349442    18.968653
OC     17.404138   -17.237186    18.091432
Ar    -17.832001   -17.832001   -10.000000
Ar    -17.832001   -17.832001   100.000000
 
