 29
Gases    35.66430000   35.66430000 1000.00000000
CO      0.911355     2.354944    22.396769
OC      0.953661     1.847520    23.466679
OC      0.905709     2.931279    21.321646
CO    -13.216684     7.006355    21.692086
OC    -13.672148     7.206910    20.660691
OC    -12.626205     6.951175    22.627529
CO      0.055711     5.110102    24.990613
OC      1.003167     4.303602    24.806084
OC     -0.910632     5.921595    25.183107
CO      9.789311     4.419054    26.976318
OC      9.714361     4.511632    28.222715
OC      9.949701     4.323241    25.694467
CO      8.546294     6.157910    20.636329
OC      8.811336     6.879654    21.589915
OC      8.260440     5.406347    19.619217
CO    -10.334316    10.749016    18.967748
OC    -10.359304     9.752747    19.357138
OC    -10.199433    11.831726    18.590698
CO     15.376652    12.098776    19.202839
OC     15.444049    11.026180    19.771777
OC     15.302328    13.142058    18.697142
CO     -0.522824     6.259349    24.380078
OC     -0.075197     5.559273    25.266287
OC     -0.889064     6.918207    23.468408
CO    -17.658520   -17.024350    18.035782
OC    -16.539998   -16.623523    18.163881
OC     16.867509   -17.382428    17.886921
Ar    -17.832001   -17.832001   -10.000000
Ar    -17.832001   -17.832001   100.000000
 
