 29
Gases    35.66430000   35.66430000 1000.00000000
CO      1.294084     1.574245    21.747576
OC      2.183658     0.727548    21.624880
OC      0.486633     2.440805    21.933248
CO    -13.303708     7.009992    21.532691
OC    -12.956946     6.794755    22.560400
OC    -13.828732     7.553393    20.517157
CO     -0.354180     6.212169    24.590878
OC     -0.402813     5.541940    25.665334
OC     -0.309214     6.855221    23.568407
CO      9.910419     4.923590    25.460428
OC      9.866908     4.671411    24.199271
OC      9.982978     5.233815    26.666802
CO      8.179947     4.022334    20.788522
OC      9.434401     4.308643    20.482216
OC      7.020499     3.732793    21.032151
CO    -11.555971    12.276227    18.483550
OC    -12.163333    11.982662    17.558730
OC    -10.887420    12.539053    19.447279
CO     16.266912    11.536948    19.646765
OC     15.234482    11.439235    20.085551
OC     17.427994    11.632669    19.168207
CO     -2.463589     6.342982    23.818061
OC     -1.839848     5.772190    24.706973
OC     -3.112621     6.930417    22.986252
CO    -16.358887   -16.935820    19.047903
OC    -15.310858   -17.317376    19.543614
OC    -17.297447   -16.575805    18.574625
Ar    -17.832001   -17.832001   -10.000000
Ar    -17.832001   -17.832001   100.000000
 
