 29
Gases    35.66430000   35.66430000 1000.00000000
CO      1.347363     1.683065    21.744790
OC      2.150234     0.914939    21.375326
OC      0.573892     2.522522    22.196174
CO    -13.328298     7.001906    21.505926
OC    -13.375159     6.731209    22.811102
OC    -13.412811     7.585848    20.303927
CO     -0.533287     6.309525    24.578651
OC     -0.625848     5.823500    25.597781
OC     -0.436154     6.834587    23.491855
CO      9.878555     4.999461    25.246688
OC      9.928859     4.405521    24.308342
OC      9.847241     5.660464    26.185395
CO      8.179495     3.771600    20.783283
OC      9.153073     3.867755    20.408776
OC      7.118410     3.638534    21.152748
CO    -11.629115    12.561991    18.700408
OC    -12.394244    12.391965    17.707133
OC    -10.969732    12.673281    19.530423
CO     16.666377    11.318055    19.763185
OC     15.578505    11.159509    20.339768
OC     17.611348    11.438739    19.258371
CO     -2.441676     6.572029    23.758187
OC     -2.187171     5.868230    24.502094
OC     -2.790605     7.362135    23.023307
CO    -15.957845   -17.121311    19.204744
OC    -15.156011   -17.372033    19.759465
OC    -16.908014   -16.832685    18.541836
Ar    -17.832001   -17.832001   -10.000000
Ar    -17.832001   -17.832001   100.000000
 
