 29
Gases    35.66430000   35.66430000 1000.00000000
CO      1.354491     1.651790    21.793164
OC      2.198783     0.731133    21.492157
OC      0.462863     2.507507    22.036707
CO    -13.384517     7.231479    21.554746
OC    -13.086691     6.662632    22.713964
OC    -13.647543     7.505725    20.352814
CO     -0.427190     6.260901    24.570638
OC     -0.495831     5.618842    25.699581
OC     -0.358859     6.874158    23.486215
CO      9.925355     5.007374    25.352164
OC      9.881488     4.533731    24.221480
OC      9.918874     5.396046    26.512691
CO      8.171833     3.910876    20.765672
OC      9.350212     4.143230    20.453762
OC      7.038531     3.694404    21.094771
CO    -11.613215    12.332026    18.481668
OC    -12.260888    12.171132    17.620482
OC    -10.899657    12.613356    19.525887
CO     16.406033    11.440449    19.726602
OC     15.361967    11.325976    20.193674
OC     17.534013    11.560131    19.180351
CO     -2.491029     6.462675    23.785619
OC     -1.974787     5.805522    24.620693
OC     -2.971330     7.079715    23.004469
CO    -16.233660   -16.981927    19.066225
OC    -15.271783   -17.341635    19.619126
OC    -17.097716   -16.697371    18.600030
Ar    -17.832001   -17.832001   -10.000000
Ar    -17.832001   -17.832001   100.000000
 
