 29
Gases    35.66430000   35.66430000 1000.00000000
CO      1.547136     2.235598    21.811169
OC      1.699873     2.231249    20.569123
OC      1.361754     2.255948    23.059032
CO    -13.360020     7.092962    21.552690
OC    -14.620875     7.140279    21.301997
OC    -12.157844     6.710289    21.880013
CO     -1.146614     6.913983    24.370515
OC     -1.586793     7.049164    25.525943
OC     -0.703184     6.770644    23.200380
CO      9.038027     4.773035    24.710364
OC     10.149039     4.329792    25.052803
OC      7.919324     5.201506    24.388559
CO      7.715120     2.541626    20.797807
OC      8.291335     1.973739    19.815613
OC      7.175692     3.127421    21.775138
CO    -12.282383    12.954154    19.771442
OC    -13.285044    13.066369    19.135089
OC    -11.318194    12.764119    20.324130
CO     17.732802    10.294363    19.832702
OC     16.610427     9.826697    19.887874
OC    -16.842748    10.772761    19.801548
CO     -2.071315     8.444273    23.118885
OC     -2.154735     7.282584    23.304918
OC     -1.901716     9.599144    22.858564
CO    -14.650046   -17.533554    19.943204
OC    -14.252987   -17.380039    20.963332
OC    -15.047496   -17.676797    18.841221
Ar    -17.832001   -17.832001   -10.000000
Ar    -17.832001   -17.832001   100.000000
 
