 29
Gases    35.66430000   35.66430000 1000.00000000
CO      1.414410     1.909986    21.786622
OC      2.052968     1.327562    20.931656
OC      0.790276     2.522562    22.641419
CO    -13.456300     7.156650    21.543750
OC    -14.115468     6.824400    22.462918
OC    -12.594951     7.281128    20.658225
CO     -0.783204     6.530686    24.482723
OC     -1.005479     6.259215    25.649550
OC     -0.560832     6.801178    23.298488
CO      9.651812     5.008439    25.035016
OC     10.106039     4.009943    24.418478
OC      9.225882     6.021146    25.618464
CO      8.029515     3.310319    20.809318
OC      9.111140     3.176206    20.144150
OC      6.962742     3.468101    21.472309
CO    -11.817151    12.966365    19.018188
OC    -12.640194    12.908924    18.202178
OC    -11.025754    12.919351    19.750631
CO     17.045268    10.937685    19.917612
OC     16.034881    10.718012    20.481971
OC    -17.610973    11.180475    19.385604
CO     -2.429706     7.120742    23.601573
OC     -2.391069     6.080753    24.148036
OC     -2.381487     8.149212    22.979153
CO    -15.509088   -17.336831    19.413918
OC    -14.719506   -17.459011    20.244854
OC    -16.318697   -17.175018    18.513383
Ar    -17.832001   -17.832001   -10.000000
Ar    -17.832001   -17.832001   100.000000
 
