 29
Gases    35.66430000   35.66430000 1000.00000000
CO      1.512321     2.251536    21.827551
OC      1.690580     2.295774    20.541195
OC      1.419305     2.234280    23.079211
CO    -13.395014     7.047501    21.508113
OC    -14.614757     7.179038    21.227538
OC    -12.134495     6.679180    21.995394
CO     -1.159900     6.933886    24.339314
OC     -1.634238     7.104892    25.540152
OC     -0.709327     6.773993    23.191179
CO      8.963370     4.729179    24.707899
OC     10.109220     4.388185    25.077585
OC      7.899470     5.117187    24.301463
CO      7.690746     2.514208    20.821640
OC      8.195685     1.903275    19.792524
OC      7.198469     3.074045    21.760682
CO    -12.398849    12.929479    19.761692
OC    -13.316959    13.086760    19.209508
OC    -11.358301    12.719971    20.365021
CO     17.721645    10.232389    19.830639
OC     16.678914     9.774194    19.840427
OC    -16.781759    10.746284    19.836591
CO     -1.997181     8.567417    23.045742
OC     -2.128993     7.390827    23.255294
OC     -1.888043     9.706761    22.853446
CO    -14.604941   -17.558653    19.922994
OC    -14.212941   -17.376349    20.987763
OC    -14.934965   -17.694771    18.934591
Ar    -17.832001   -17.832001   -10.000000
Ar    -17.832001   -17.832001   100.000000
 
